<configuration>
	<route-files value="cross.rou.xml"/>
    	<net-file value="cross.net.xml"/>    
	<gui-settings-file value="cross.settings.xml"/>
</configuration>
